54
Lattice="0.0 7.779000000000002 7.779000000000002 7.779000000000002 0.0 7.779000000000002 7.779000000000002 7.779000000000002 0.0" Properties=species:S:1:pos:R:3 pbc="T T T"
B        0.00000000       0.00000000       0.00000000
Sb       1.29650000       1.29650000       1.29650000
B        2.59300000       2.59300000       0.00000000
Sb       3.88950000       3.88950000       1.29650000
B        5.18600000       5.18600000       0.00000000
Sb       6.48250000       6.48250000       1.29650000
B        2.59300000       0.00000000       2.59300000
Sb       3.88950000       1.29650000       3.88950000
B        5.18600000       2.59300000       2.59300000
Sb       6.48250000       3.88950000       3.88950000
B        7.77900000       5.18600000       2.59300000
Sb       9.07550000       6.48250000       3.88950000
B        5.18600000       0.00000000       5.18600000
Sb       6.48250000       1.29650000       6.48250000
B        7.77900000       2.59300000       5.18600000
Sb       9.07550000       3.88950000       6.48250000
B       10.37200000       5.18600000       5.18600000
Sb      11.66850000       6.48250000       6.48250000
B        0.00000000       2.59300000       2.59300000
Sb       1.29650000       3.88950000       3.88950000
B        2.59300000       5.18600000       2.59300000
Sb       3.88950000       6.48250000       3.88950000
B        5.18600000       7.77900000       2.59300000
Sb       6.48250000       9.07550000       3.88950000
B        2.59300000       2.59300000       5.18600000
Sb       3.88950000       3.88950000       6.48250000
B        5.18600000       5.18600000       5.18600000
Sb       6.48250000       6.48250000       6.48250000
B        7.77900000       7.77900000       5.18600000
Sb       9.07550000       9.07550000       6.48250000
B        5.18600000       2.59300000       7.77900000
Sb       6.48250000       3.88950000       9.07550000
B        7.77900000       5.18600000       7.77900000
Sb       9.07550000       6.48250000       9.07550000
B       10.37200000       7.77900000       7.77900000
Sb      11.66850000       9.07550000       9.07550000
B        0.00000000       5.18600000       5.18600000
Sb       1.29650000       6.48250000       6.48250000
B        2.59300000       7.77900000       5.18600000
Sb       3.88950000       9.07550000       6.48250000
B        5.18600000      10.37200000       5.18600000
Sb       6.48250000      11.66850000       6.48250000
B        2.59300000       5.18600000       7.77900000
Sb       3.88950000       6.48250000       9.07550000
B        5.18600000       7.77900000       7.77900000
Sb       6.48250000       9.07550000       9.07550000
B        7.77900000      10.37200000       7.77900000
Sb       9.07550000      11.66850000       9.07550000
B        5.18600000       5.18600000      10.37200000
Sb       6.48250000       6.48250000      11.66850000
B        7.77900000       7.77900000      10.37200000
Sb       9.07550000       9.07550000      11.66850000
B       10.37200000      10.37200000      10.37200000
Sb      11.66850000      11.66850000      11.66850000
