54
Lattice="0.0 9.620999999999999 9.620999999999999 9.620999999999999 0.0 9.620999999999999 9.620999999999999 9.620999999999999 0.0" Properties=species:S:1:pos:R:3 pbc="T T T"
Cd       0.00000000       0.00000000       0.00000000
Te       1.60350000       1.60350000       1.60350000
Cd       3.20700000       3.20700000       0.00000000
Te       4.81050000       4.81050000       1.60350000
Cd       6.41400000       6.41400000       0.00000000
Te       8.01750000       8.01750000       1.60350000
Cd       3.20700000       0.00000000       3.20700000
Te       4.81050000       1.60350000       4.81050000
Cd       6.41400000       3.20700000       3.20700000
Te       8.01750000       4.81050000       4.81050000
Cd       9.62100000       6.41400000       3.20700000
Te      11.22450000       8.01750000       4.81050000
Cd       6.41400000       0.00000000       6.41400000
Te       8.01750000       1.60350000       8.01750000
Cd       9.62100000       3.20700000       6.41400000
Te      11.22450000       4.81050000       8.01750000
Cd      12.82800000       6.41400000       6.41400000
Te      14.43150000       8.01750000       8.01750000
Cd       0.00000000       3.20700000       3.20700000
Te       1.60350000       4.81050000       4.81050000
Cd       3.20700000       6.41400000       3.20700000
Te       4.81050000       8.01750000       4.81050000
Cd       6.41400000       9.62100000       3.20700000
Te       8.01750000      11.22450000       4.81050000
Cd       3.20700000       3.20700000       6.41400000
Te       4.81050000       4.81050000       8.01750000
Cd       6.41400000       6.41400000       6.41400000
Te       8.01750000       8.01750000       8.01750000
Cd       9.62100000       9.62100000       6.41400000
Te      11.22450000      11.22450000       8.01750000
Cd       6.41400000       3.20700000       9.62100000
Te       8.01750000       4.81050000      11.22450000
Cd       9.62100000       6.41400000       9.62100000
Te      11.22450000       8.01750000      11.22450000
Cd      12.82800000       9.62100000       9.62100000
Te      14.43150000      11.22450000      11.22450000
Cd       0.00000000       6.41400000       6.41400000
Te       1.60350000       8.01750000       8.01750000
Cd       3.20700000       9.62100000       6.41400000
Te       4.81050000      11.22450000       8.01750000
Cd       6.41400000      12.82800000       6.41400000
Te       8.01750000      14.43150000       8.01750000
Cd       3.20700000       6.41400000       9.62100000
Te       4.81050000       8.01750000      11.22450000
Cd       6.41400000       9.62100000       9.62100000
Te       8.01750000      11.22450000      11.22450000
Cd       9.62100000      12.82800000       9.62100000
Te      11.22450000      14.43150000      11.22450000
Cd       6.41400000       6.41400000      12.82800000
Te       8.01750000       8.01750000      14.43150000
Cd       9.62100000       9.62100000      12.82800000
Te      11.22450000      11.22450000      14.43150000
Cd      12.82800000      12.82800000      12.82800000
Te      14.43150000      14.43150000      14.43150000
