54
Lattice="0.0 6.6899999999999995 6.6899999999999995 6.6899999999999995 0.0 6.6899999999999995 6.6899999999999995 6.6899999999999995 0.0" Properties=species:S:1:pos:R:3 pbc="T T T"
Ga       0.00000000       0.00000000       0.00000000
N        1.11500000       1.11500000       1.11500000
Ga       2.23000000       2.23000000       0.00000000
N        3.34500000       3.34500000       1.11500000
Ga       4.46000000       4.46000000       0.00000000
N        5.57500000       5.57500000       1.11500000
Ga       2.23000000       0.00000000       2.23000000
N        3.34500000       1.11500000       3.34500000
Ga       4.46000000       2.23000000       2.23000000
N        5.57500000       3.34500000       3.34500000
Ga       6.69000000       4.46000000       2.23000000
N        7.80500000       5.57500000       3.34500000
Ga       4.46000000       0.00000000       4.46000000
N        5.57500000       1.11500000       5.57500000
Ga       6.69000000       2.23000000       4.46000000
N        7.80500000       3.34500000       5.57500000
Ga       8.92000000       4.46000000       4.46000000
N       10.03500000       5.57500000       5.57500000
Ga       0.00000000       2.23000000       2.23000000
N        1.11500000       3.34500000       3.34500000
Ga       2.23000000       4.46000000       2.23000000
N        3.34500000       5.57500000       3.34500000
Ga       4.46000000       6.69000000       2.23000000
N        5.57500000       7.80500000       3.34500000
Ga       2.23000000       2.23000000       4.46000000
N        3.34500000       3.34500000       5.57500000
Ga       4.46000000       4.46000000       4.46000000
N        5.57500000       5.57500000       5.57500000
Ga       6.69000000       6.69000000       4.46000000
N        7.80500000       7.80500000       5.57500000
Ga       4.46000000       2.23000000       6.69000000
N        5.57500000       3.34500000       7.80500000
Ga       6.69000000       4.46000000       6.69000000
N        7.80500000       5.57500000       7.80500000
Ga       8.92000000       6.69000000       6.69000000
N       10.03500000       7.80500000       7.80500000
Ga       0.00000000       4.46000000       4.46000000
N        1.11500000       5.57500000       5.57500000
Ga       2.23000000       6.69000000       4.46000000
N        3.34500000       7.80500000       5.57500000
Ga       4.46000000       8.92000000       4.46000000
N        5.57500000      10.03500000       5.57500000
Ga       2.23000000       4.46000000       6.69000000
N        3.34500000       5.57500000       7.80500000
Ga       4.46000000       6.69000000       6.69000000
N        5.57500000       7.80500000       7.80500000
Ga       6.69000000       8.92000000       6.69000000
N        7.80500000      10.03500000       7.80500000
Ga       4.46000000       4.46000000       8.92000000
N        5.57500000       5.57500000      10.03500000
Ga       6.69000000       6.69000000       8.92000000
N        7.80500000       7.80500000      10.03500000
Ga       8.92000000       8.92000000       8.92000000
N       10.03500000      10.03500000      10.03500000
