54
Lattice="0.0 8.7075 8.7075 8.7075 0.0 8.7075 8.7075 8.7075 0.0" Properties=species:S:1:pos:R:3 pbc="T T T"
Cs       0.00000000       0.00000000       0.00000000
F        2.90250000       2.90250000       2.90250000
Cs       2.90250000       2.90250000       0.00000000
F        5.80500000       5.80500000       2.90250000
Cs       5.80500000       5.80500000       0.00000000
F        8.70750000       8.70750000       2.90250000
Cs       2.90250000       0.00000000       2.90250000
F        5.80500000       2.90250000       5.80500000
Cs       5.80500000       2.90250000       2.90250000
F        8.70750000       5.80500000       5.80500000
Cs       8.70750000       5.80500000       2.90250000
F       11.61000000       8.70750000       5.80500000
Cs       5.80500000       0.00000000       5.80500000
F        8.70750000       2.90250000       8.70750000
Cs       8.70750000       2.90250000       5.80500000
F       11.61000000       5.80500000       8.70750000
Cs      11.61000000       5.80500000       5.80500000
F       14.51250000       8.70750000       8.70750000
Cs       0.00000000       2.90250000       2.90250000
F        2.90250000       5.80500000       5.80500000
Cs       2.90250000       5.80500000       2.90250000
F        5.80500000       8.70750000       5.80500000
Cs       5.80500000       8.70750000       2.90250000
F        8.70750000      11.61000000       5.80500000
Cs       2.90250000       2.90250000       5.80500000
F        5.80500000       5.80500000       8.70750000
Cs       5.80500000       5.80500000       5.80500000
F        8.70750000       8.70750000       8.70750000
Cs       8.70750000       8.70750000       5.80500000
F       11.61000000      11.61000000       8.70750000
Cs       5.80500000       2.90250000       8.70750000
F        8.70750000       5.80500000      11.61000000
Cs       8.70750000       5.80500000       8.70750000
F       11.61000000       8.70750000      11.61000000
Cs      11.61000000       8.70750000       8.70750000
F       14.51250000      11.61000000      11.61000000
Cs       0.00000000       5.80500000       5.80500000
F        2.90250000       8.70750000       8.70750000
Cs       2.90250000       8.70750000       5.80500000
F        5.80500000      11.61000000       8.70750000
Cs       5.80500000      11.61000000       5.80500000
F        8.70750000      14.51250000       8.70750000
Cs       2.90250000       5.80500000       8.70750000
F        5.80500000       8.70750000      11.61000000
Cs       5.80500000       8.70750000       8.70750000
F        8.70750000      11.61000000      11.61000000
Cs       8.70750000      11.61000000       8.70750000
F       11.61000000      14.51250000      11.61000000
Cs       5.80500000       5.80500000      11.61000000
F        8.70750000       8.70750000      14.51250000
Cs       8.70750000       8.70750000      11.61000000
F       11.61000000      11.61000000      14.51250000
Cs      11.61000000      11.61000000      11.61000000
F       14.51250000      14.51250000      14.51250000
