54
Lattice="0.0 9.558 9.558 9.558 0.0 9.558 9.558 9.558 0.0" Properties=species:S:1:pos:R:3 pbc="T T T"
K        0.00000000       0.00000000       0.00000000
Br       3.18600000       3.18600000       3.18600000
K        3.18600000       3.18600000       0.00000000
Br       6.37200000       6.37200000       3.18600000
K        6.37200000       6.37200000       0.00000000
Br       9.55800000       9.55800000       3.18600000
K        3.18600000       0.00000000       3.18600000
Br       6.37200000       3.18600000       6.37200000
K        6.37200000       3.18600000       3.18600000
Br       9.55800000       6.37200000       6.37200000
K        9.55800000       6.37200000       3.18600000
Br      12.74400000       9.55800000       6.37200000
K        6.37200000       0.00000000       6.37200000
Br       9.55800000       3.18600000       9.55800000
K        9.55800000       3.18600000       6.37200000
Br      12.74400000       6.37200000       9.55800000
K       12.74400000       6.37200000       6.37200000
Br      15.93000000       9.55800000       9.55800000
K        0.00000000       3.18600000       3.18600000
Br       3.18600000       6.37200000       6.37200000
K        3.18600000       6.37200000       3.18600000
Br       6.37200000       9.55800000       6.37200000
K        6.37200000       9.55800000       3.18600000
Br       9.55800000      12.74400000       6.37200000
K        3.18600000       3.18600000       6.37200000
Br       6.37200000       6.37200000       9.55800000
K        6.37200000       6.37200000       6.37200000
Br       9.55800000       9.55800000       9.55800000
K        9.55800000       9.55800000       6.37200000
Br      12.74400000      12.74400000       9.55800000
K        6.37200000       3.18600000       9.55800000
Br       9.55800000       6.37200000      12.74400000
K        9.55800000       6.37200000       9.55800000
Br      12.74400000       9.55800000      12.74400000
K       12.74400000       9.55800000       9.55800000
Br      15.93000000      12.74400000      12.74400000
K        0.00000000       6.37200000       6.37200000
Br       3.18600000       9.55800000       9.55800000
K        3.18600000       9.55800000       6.37200000
Br       6.37200000      12.74400000       9.55800000
K        6.37200000      12.74400000       6.37200000
Br       9.55800000      15.93000000       9.55800000
K        3.18600000       6.37200000       9.55800000
Br       6.37200000       9.55800000      12.74400000
K        6.37200000       9.55800000       9.55800000
Br       9.55800000      12.74400000      12.74400000
K        9.55800000      12.74400000       9.55800000
Br      12.74400000      15.93000000      12.74400000
K        6.37200000       6.37200000      12.74400000
Br       9.55800000       9.55800000      15.93000000
K        9.55800000       9.55800000      12.74400000
Br      12.74400000      12.74400000      15.93000000
K       12.74400000      12.74400000      12.74400000
Br      15.93000000      15.93000000      15.93000000
