54
Lattice="0.0 8.251500000000002 8.251500000000002 8.251500000000002 0.0 8.251500000000002 8.251500000000002 8.251500000000002 0.0" Properties=species:S:1:pos:R:3 pbc="T T T"
Ge       0.00000000       0.00000000       0.00000000
Si       1.37525000       1.37525000       1.37525000
Ge       2.75050000       2.75050000       0.00000000
Si       4.12575000       4.12575000       1.37525000
Ge       5.50100000       5.50100000       0.00000000
Si       6.87625000       6.87625000       1.37525000
Ge       2.75050000       0.00000000       2.75050000
Si       4.12575000       1.37525000       4.12575000
Ge       5.50100000       2.75050000       2.75050000
Si       6.87625000       4.12575000       4.12575000
Ge       8.25150000       5.50100000       2.75050000
Si       9.62675000       6.87625000       4.12575000
Ge       5.50100000       0.00000000       5.50100000
Si       6.87625000       1.37525000       6.87625000
Ge       8.25150000       2.75050000       5.50100000
Si       9.62675000       4.12575000       6.87625000
Ge      11.00200000       5.50100000       5.50100000
Si      12.37725000       6.87625000       6.87625000
Ge       0.00000000       2.75050000       2.75050000
Si       1.37525000       4.12575000       4.12575000
Ge       2.75050000       5.50100000       2.75050000
Si       4.12575000       6.87625000       4.12575000
Ge       5.50100000       8.25150000       2.75050000
Si       6.87625000       9.62675000       4.12575000
Ge       2.75050000       2.75050000       5.50100000
Si       4.12575000       4.12575000       6.87625000
Ge       5.50100000       5.50100000       5.50100000
Si       6.87625000       6.87625000       6.87625000
Ge       8.25150000       8.25150000       5.50100000
Si       9.62675000       9.62675000       6.87625000
Ge       5.50100000       2.75050000       8.25150000
Si       6.87625000       4.12575000       9.62675000
Ge       8.25150000       5.50100000       8.25150000
Si       9.62675000       6.87625000       9.62675000
Ge      11.00200000       8.25150000       8.25150000
Si      12.37725000       9.62675000       9.62675000
Ge       0.00000000       5.50100000       5.50100000
Si       1.37525000       6.87625000       6.87625000
Ge       2.75050000       8.25150000       5.50100000
Si       4.12575000       9.62675000       6.87625000
Ge       5.50100000      11.00200000       5.50100000
Si       6.87625000      12.37725000       6.87625000
Ge       2.75050000       5.50100000       8.25150000
Si       4.12575000       6.87625000       9.62675000
Ge       5.50100000       8.25150000       8.25150000
Si       6.87625000       9.62675000       9.62675000
Ge       8.25150000      11.00200000       8.25150000
Si       9.62675000      12.37725000       9.62675000
Ge       5.50100000       5.50100000      11.00200000
Si       6.87625000       6.87625000      12.37725000
Ge       8.25150000       8.25150000      11.00200000
Si       9.62675000       9.62675000      12.37725000
Ge      11.00200000      11.00200000      11.00200000
Si      12.37725000      12.37725000      12.37725000
