54
Lattice="0.0 8.7645 8.7645 8.7645 0.0 8.7645 8.7645 8.7645 0.0" Properties=species:S:1:pos:R:3 pbc="T T T"
Mg       0.00000000       0.00000000       0.00000000
Te       2.92150000       2.92150000       2.92150000
Mg       2.92150000       2.92150000       0.00000000
Te       5.84300000       5.84300000       2.92150000
Mg       5.84300000       5.84300000       0.00000000
Te       8.76450000       8.76450000       2.92150000
Mg       2.92150000       0.00000000       2.92150000
Te       5.84300000       2.92150000       5.84300000
Mg       5.84300000       2.92150000       2.92150000
Te       8.76450000       5.84300000       5.84300000
Mg       8.76450000       5.84300000       2.92150000
Te      11.68600000       8.76450000       5.84300000
Mg       5.84300000       0.00000000       5.84300000
Te       8.76450000       2.92150000       8.76450000
Mg       8.76450000       2.92150000       5.84300000
Te      11.68600000       5.84300000       8.76450000
Mg      11.68600000       5.84300000       5.84300000
Te      14.60750000       8.76450000       8.76450000
Mg       0.00000000       2.92150000       2.92150000
Te       2.92150000       5.84300000       5.84300000
Mg       2.92150000       5.84300000       2.92150000
Te       5.84300000       8.76450000       5.84300000
Mg       5.84300000       8.76450000       2.92150000
Te       8.76450000      11.68600000       5.84300000
Mg       2.92150000       2.92150000       5.84300000
Te       5.84300000       5.84300000       8.76450000
Mg       5.84300000       5.84300000       5.84300000
Te       8.76450000       8.76450000       8.76450000
Mg       8.76450000       8.76450000       5.84300000
Te      11.68600000      11.68600000       8.76450000
Mg       5.84300000       2.92150000       8.76450000
Te       8.76450000       5.84300000      11.68600000
Mg       8.76450000       5.84300000       8.76450000
Te      11.68600000       8.76450000      11.68600000
Mg      11.68600000       8.76450000       8.76450000
Te      14.60750000      11.68600000      11.68600000
Mg       0.00000000       5.84300000       5.84300000
Te       2.92150000       8.76450000       8.76450000
Mg       2.92150000       8.76450000       5.84300000
Te       5.84300000      11.68600000       8.76450000
Mg       5.84300000      11.68600000       5.84300000
Te       8.76450000      14.60750000       8.76450000
Mg       2.92150000       5.84300000       8.76450000
Te       5.84300000       8.76450000      11.68600000
Mg       5.84300000       8.76450000       8.76450000
Te       8.76450000      11.68600000      11.68600000
Mg       8.76450000      11.68600000       8.76450000
Te      11.68600000      14.60750000      11.68600000
Mg       5.84300000       5.84300000      11.68600000
Te       8.76450000       8.76450000      14.60750000
Mg       8.76450000       8.76450000      11.68600000
Te      11.68600000      11.68600000      14.60750000
Mg      11.68600000      11.68600000      11.68600000
Te      14.60750000      14.60750000      14.60750000
