54
Lattice="0.0 7.449 7.449 7.449 0.0 7.449 7.449 7.449 0.0" Properties=species:S:1:pos:R:3 pbc="T T T"
Li       0.00000000       0.00000000       0.00000000
Cl       2.48300000       2.48300000       2.48300000
Li       2.48300000       2.48300000       0.00000000
Cl       4.96600000       4.96600000       2.48300000
Li       4.96600000       4.96600000       0.00000000
Cl       7.44900000       7.44900000       2.48300000
Li       2.48300000       0.00000000       2.48300000
Cl       4.96600000       2.48300000       4.96600000
Li       4.96600000       2.48300000       2.48300000
Cl       7.44900000       4.96600000       4.96600000
Li       7.44900000       4.96600000       2.48300000
Cl       9.93200000       7.44900000       4.96600000
Li       4.96600000       0.00000000       4.96600000
Cl       7.44900000       2.48300000       7.44900000
Li       7.44900000       2.48300000       4.96600000
Cl       9.93200000       4.96600000       7.44900000
Li       9.93200000       4.96600000       4.96600000
Cl      12.41500000       7.44900000       7.44900000
Li       0.00000000       2.48300000       2.48300000
Cl       2.48300000       4.96600000       4.96600000
Li       2.48300000       4.96600000       2.48300000
Cl       4.96600000       7.44900000       4.96600000
Li       4.96600000       7.44900000       2.48300000
Cl       7.44900000       9.93200000       4.96600000
Li       2.48300000       2.48300000       4.96600000
Cl       4.96600000       4.96600000       7.44900000
Li       4.96600000       4.96600000       4.96600000
Cl       7.44900000       7.44900000       7.44900000
Li       7.44900000       7.44900000       4.96600000
Cl       9.93200000       9.93200000       7.44900000
Li       4.96600000       2.48300000       7.44900000
Cl       7.44900000       4.96600000       9.93200000
Li       7.44900000       4.96600000       7.44900000
Cl       9.93200000       7.44900000       9.93200000
Li       9.93200000       7.44900000       7.44900000
Cl      12.41500000       9.93200000       9.93200000
Li       0.00000000       4.96600000       4.96600000
Cl       2.48300000       7.44900000       7.44900000
Li       2.48300000       7.44900000       4.96600000
Cl       4.96600000       9.93200000       7.44900000
Li       4.96600000       9.93200000       4.96600000
Cl       7.44900000      12.41500000       7.44900000
Li       2.48300000       4.96600000       7.44900000
Cl       4.96600000       7.44900000       9.93200000
Li       4.96600000       7.44900000       7.44900000
Cl       7.44900000       9.93200000       9.93200000
Li       7.44900000       9.93200000       7.44900000
Cl       9.93200000      12.41500000       9.93200000
Li       4.96600000       4.96600000       9.93200000
Cl       7.44900000       7.44900000      12.41500000
Li       7.44900000       7.44900000       9.93200000
Cl       9.93200000       9.93200000      12.41500000
Li       9.93200000       9.93200000       9.93200000
Cl      12.41500000      12.41500000      12.41500000
