54
Lattice="0.0 6.755999999999999 6.755999999999999 6.755999999999999 0.0 6.755999999999999 6.755999999999999 6.755999999999999 0.0" Properties=species:S:1:pos:R:3 pbc="T T T"
Na       0.00000000       0.00000000       0.00000000
F        2.25200000       2.25200000       2.25200000
Na       2.25200000       2.25200000       0.00000000
F        4.50400000       4.50400000       2.25200000
Na       4.50400000       4.50400000       0.00000000
F        6.75600000       6.75600000       2.25200000
Na       2.25200000       0.00000000       2.25200000
F        4.50400000       2.25200000       4.50400000
Na       4.50400000       2.25200000       2.25200000
F        6.75600000       4.50400000       4.50400000
Na       6.75600000       4.50400000       2.25200000
F        9.00800000       6.75600000       4.50400000
Na       4.50400000       0.00000000       4.50400000
F        6.75600000       2.25200000       6.75600000
Na       6.75600000       2.25200000       4.50400000
F        9.00800000       4.50400000       6.75600000
Na       9.00800000       4.50400000       4.50400000
F       11.26000000       6.75600000       6.75600000
Na       0.00000000       2.25200000       2.25200000
F        2.25200000       4.50400000       4.50400000
Na       2.25200000       4.50400000       2.25200000
F        4.50400000       6.75600000       4.50400000
Na       4.50400000       6.75600000       2.25200000
F        6.75600000       9.00800000       4.50400000
Na       2.25200000       2.25200000       4.50400000
F        4.50400000       4.50400000       6.75600000
Na       4.50400000       4.50400000       4.50400000
F        6.75600000       6.75600000       6.75600000
Na       6.75600000       6.75600000       4.50400000
F        9.00800000       9.00800000       6.75600000
Na       4.50400000       2.25200000       6.75600000
F        6.75600000       4.50400000       9.00800000
Na       6.75600000       4.50400000       6.75600000
F        9.00800000       6.75600000       9.00800000
Na       9.00800000       6.75600000       6.75600000
F       11.26000000       9.00800000       9.00800000
Na       0.00000000       4.50400000       4.50400000
F        2.25200000       6.75600000       6.75600000
Na       2.25200000       6.75600000       4.50400000
F        4.50400000       9.00800000       6.75600000
Na       4.50400000       9.00800000       4.50400000
F        6.75600000      11.26000000       6.75600000
Na       2.25200000       4.50400000       6.75600000
F        4.50400000       6.75600000       9.00800000
Na       4.50400000       6.75600000       6.75600000
F        6.75600000       9.00800000       9.00800000
Na       6.75600000       9.00800000       6.75600000
F        9.00800000      11.26000000       9.00800000
Na       4.50400000       4.50400000       9.00800000
F        6.75600000       6.75600000      11.26000000
Na       6.75600000       6.75600000       9.00800000
F        9.00800000       9.00800000      11.26000000
Na       9.00800000       9.00800000       9.00800000
F       11.26000000      11.26000000      11.26000000
